
     RDKit          3D

 33 37  0  0  0  0  0  0  0  0999 V2000
   15.2930   29.6800   -8.8382 N   0  0  0  0  0  0  0  0  0  0  0  0
   14.8940   30.9213   -9.3123 C   0  0  0  0  0  0  0  0  0  0  0  0
   13.5739   31.1403   -9.5027 N   0  0  0  0  0  0  0  0  0  0  0  0
   13.1866   32.3374   -9.9843 C   0  0  0  0  0  0  0  0  0  0  0  0
   13.9535   33.4062  -10.2915 N   0  0  0  0  0  0  0  0  0  0  0  0
   15.2550   33.1484  -10.0576 C   0  0  0  0  0  0  0  0  0  0  0  0
   15.7929   31.9631   -9.5891 C   0  0  0  0  0  0  0  0  0  0  0  0
   17.1585   32.0533   -9.4826 N   0  0  0  0  0  0  0  0  0  0  0  0
   17.4635   33.2574   -9.9122 C   0  0  0  0  0  0  0  0  0  0  0  0
   18.7000   33.7692  -10.0653 N   0  0  0  0  0  0  0  0  0  0  0  0
   19.8262   33.0804   -9.4664 C   0  0  0  0  0  0  0  0  0  0  0  0
   21.1078   33.7814   -9.8510 C   0  0  0  0  0  0  0  0  0  0  0  0
   21.5609   33.7487  -11.1762 C   0  0  0  0  0  0  0  0  0  0  0  0
   22.7459   34.3958  -11.5391 C   0  0  0  0  0  0  0  0  0  0  0  0
   23.5123   35.0919  -10.5900 C   0  0  0  0  0  0  0  0  0  0  0  0
   24.7616   35.7706  -10.9737 C   0  0  0  0  0  0  0  0  0  0  0  0
   25.7852   35.0782  -11.6453 C   0  0  0  0  0  0  0  0  0  0  0  0
   26.9713   35.7221  -12.0093 C   0  0  0  0  0  0  0  0  0  0  0  0
   27.1547   37.0702  -11.7086 C   0  0  0  0  0  0  0  0  0  0  0  0
   26.1525   37.7757  -11.0459 C   0  0  0  0  0  0  0  0  0  0  0  0
   24.9669   37.1308  -10.6816 C   0  0  0  0  0  0  0  0  0  0  0  0
   23.0480   35.1233   -9.2658 C   0  0  0  0  0  0  0  0  0  0  0  0
   21.8619   34.4779   -8.8982 C   0  0  0  0  0  0  0  0  0  0  0  0
   16.3313   33.9883  -10.2255 N   0  0  0  0  0  0  0  0  0  0  0  0
   16.2768   35.3401  -10.7679 C   0  0  2  0  0  0  0  0  0  0  0  0
   17.4078   36.1088  -10.2738 O   0  0  0  0  0  0  0  0  0  0  0  0
   16.9765   37.4656  -10.0131 C   0  0  2  0  0  0  0  0  0  0  0  0
   17.0976   37.7280   -8.5064 C   0  0  0  0  0  0  0  0  0  0  0  0
   16.8010   39.0794   -8.1785 O   0  0  0  0  0  0  0  0  0  0  0  0
   15.5469   37.5764  -10.5318 C   0  0  1  0  0  0  0  0  0  0  0  0
   15.5491   37.9197  -11.9256 O   0  0  0  0  0  0  0  0  0  0  0  0
   15.0333   36.1567  -10.3809 C   0  0  1  0  0  0  0  0  0  0  0  0
   13.8997   35.9694  -11.2306 O   0  0  0  0  0  0  0  0  0  0  0  0
  1  2  1  0
  2  3  2  0
  3  4  1  0
  4  5  2  0
  5  6  1  0
  6  7  2  0
  7  8  1  0
  8  9  2  0
  9 10  1  0
 10 11  1  0
 11 12  1  0
 12 13  2  0
 13 14  1  0
 14 15  2  0
 15 16  1  0
 16 17  2  0
 17 18  1  0
 18 19  2  0
 19 20  1  0
 20 21  2  0
 15 22  1  0
 22 23  2  0
  9 24  1  0
 25 24  1  1
 25 26  1  0
 26 27  1  0
 27 28  1  1
 28 29  1  0
 27 30  1  0
 30 31  1  6
 30 32  1  0
 32 33  1  6
  7  2  1  0
 23 12  1  0
 32 25  1  0
 24  6  1  0
 21 16  1  0
M  END
$$$$
