
     RDKit          3D

 21 22  0  0  0  0  0  0  0  0999 V2000
   24.9340   36.9303  -10.6718 C   0  0  0  0  0  0  0  0  0  0  0  0
   24.3599   35.7848  -11.0642 C   0  0  0  0  0  0  0  0  0  0  0  0
   23.9209   34.6883  -10.1364 C   0  0  0  0  0  0  0  0  0  0  0  0
   22.5125   34.3357  -10.3376 N   0  0  0  0  0  0  0  0  0  0  0  0
   22.0696   33.2320  -11.0376 C   0  0  0  0  0  0  0  0  0  0  0  0
   22.9674   32.2401  -11.6890 C   0  0  0  0  0  0  0  0  0  0  0  0
   20.6927   33.2510  -11.0030 C   0  0  0  0  0  0  0  0  0  0  0  0
   20.2666   34.4110  -10.2966 C   0  0  0  0  0  0  0  0  0  0  0  0
   18.8724   34.8101  -10.0888 C   0  0  0  0  0  0  0  0  0  0  0  0
   18.0051   33.8421  -10.0320 N   0  0  0  0  0  0  0  0  0  0  0  0
   16.6523   34.1304   -9.7835 N   0  0  0  0  0  0  0  0  0  0  0  0
   16.0973   35.2297  -10.1869 C   0  0  0  0  0  0  0  0  0  0  0  0
   14.7714   35.5495  -10.0699 N   0  0  0  0  0  0  0  0  0  0  0  0
   13.6859   34.6102   -9.7944 C   0  0  0  0  0  0  0  0  0  0  0  0
   12.3727   35.4157   -9.7975 C   0  0  0  0  0  0  0  0  0  0  0  0
   13.6106   33.5407  -10.8910 C   0  0  0  0  0  0  0  0  0  0  0  0
   13.8513   33.9682   -8.4109 C   0  0  0  0  0  0  0  0  0  0  0  0
   16.9944   36.5343  -10.9359 S   0  0  0  0  0  0  0  0  0  0  0  0
   18.4921   36.2579   -9.9673 C   0  0  0  0  0  0  0  0  0  0  0  0
   21.4236   35.0474   -9.8495 C   0  0  0  0  0  0  0  0  0  0  0  0
   21.5870   36.2622   -8.9964 C   0  0  0  0  0  0  0  0  0  0  0  0
  1  2  2  3
  2  3  1  0
  3  4  1  0
  4  5  1  0
  5  6  1  0
  5  7  2  0
  7  8  1  0
  8  9  1  0
  9 10  2  0
 10 11  1  0
 11 12  2  0
 12 13  1  0
 13 14  1  0
 14 15  1  0
 14 16  1  0
 14 17  1  0
 12 18  1  0
 18 19  1  0
  8 20  2  0
 20 21  1  0
 20  4  1  0
 19  9  1  0
M  END
$$$$
