
     RDKit          3D

 18 19  0  0  0  0  0  0  0  0999 V2000
   13.9555   33.8489  -10.5872 C   0  0  0  0  0  0  0  0  0  0  0  0
   15.4703   33.6677  -10.3774 C   0  0  0  0  0  0  0  0  0  0  0  0
   15.8741   32.3840  -11.1274 C   0  0  0  0  0  0  0  0  0  0  0  0
   16.2459   34.8579  -10.8058 N   0  0  0  0  0  0  0  0  0  0  0  0
   17.7061   34.6535  -10.8873 C   0  0  0  0  0  0  0  0  0  0  0  0
   18.4508   34.3207   -9.5831 C   0  0  0  0  0  0  0  0  0  0  0  0
   19.8861   33.9614   -9.8309 C   0  0  0  0  0  0  0  0  0  0  0  0
   20.4045   32.6852   -9.9366 C   0  0  0  0  0  0  0  0  0  0  0  0
   21.7501   32.7852  -10.1659 N   0  0  0  0  0  0  0  0  0  0  0  0
   22.1288   34.1062  -10.2129 C   0  0  0  0  0  0  0  0  0  0  0  0
   23.3904   34.6760  -10.4225 C   0  0  0  0  0  0  0  0  0  0  0  0
   23.4800   36.0710  -10.4195 C   0  0  0  0  0  0  0  0  0  0  0  0
   22.3519   36.8616  -10.2149 C   0  0  0  0  0  0  0  0  0  0  0  0
   21.0983   36.2750  -10.0065 C   0  0  0  0  0  0  0  0  0  0  0  0
   20.9800   34.8698  -10.0047 C   0  0  0  0  0  0  0  0  0  0  0  0
   15.7943   36.1520  -10.2441 C   0  0  0  0  0  0  0  0  0  0  0  0
   15.7252   36.2338   -8.7127 C   0  0  0  0  0  0  0  0  0  0  0  0
   16.5690   37.3663  -10.7810 C   0  0  0  0  0  0  0  0  0  0  0  0
  1  2  1  0
  2  3  1  0
  2  4  1  0
  4  5  1  0
  5  6  1  0
  6  7  1  0
  7  8  2  0
  8  9  1  0
  9 10  1  0
 10 11  2  0
 11 12  1  0
 12 13  2  0
 13 14  1  0
 14 15  2  0
  4 16  1  0
 16 17  1  0
 16 18  1  0
 15  7  1  0
 15 10  1  0
M  END
$$$$
